  Page 1                                    Tue Mar  5 21:33:12 2019

  ******************************************************************
  *                           E P A N E T                          *
  *                   Hydraulic and Water Quality                  *
  *                   Analysis for Pipe Networks                   *
  *                         Version 2.1                            *
  ******************************************************************
  
  Analysis begun Tue Mar  5 21:33:12 2019

   
  Hydraulic Status:
  -----------------------------------------------------------------------
     0:00:00: Balanced after 5 trials
     0:00:00: Reservoir River is emptying
     0:00:00: Reservoir Lake is closed
     0:00:00: Tank 1 is filling at 13.10 ft
     0:00:00: Tank 2 is emptying at 23.50 ft
     0:00:00: Tank 3 is filling at 29.00 ft
   
     0:15:00: Balanced after 2 trials
   
     0:30:00: Balanced after 2 trials
   
     0:45:00: Balanced after 2 trials
   
     1:00:00: Pump 10 changed by timer control
     1:00:00: Balanced after 7 trials
     1:00:00: Reservoir Lake is emptying
     1:00:00: Pump 10 changed from closed to open
   
     1:15:00: Balanced after 2 trials
   
     1:30:00: Balanced after 2 trials
   
     1:45:00: Balanced after 2 trials
   
     2:00:00: Balanced after 3 trials
     2:00:00: Tank 2 is filling at 21.21 ft
   
     2:15:00: Balanced after 2 trials
   
     2:30:00: Balanced after 2 trials
   
     2:45:00: Balanced after 2 trials
   
     3:00:00: Balanced after 2 trials
   
     3:15:00: Balanced after 2 trials
   
     3:30:00: Balanced after 2 trials
   
     3:45:00: Balanced after 2 trials
   
     4:00:00: Balanced after 3 trials
   
     4:15:00: Balanced after 2 trials
   
     4:16:05: Pump 335 changed by Tank 1 control
     4:16:05: Pipe 330 changed by Tank 1 control
     4:16:05: Balanced after 4 trials
     4:16:05: Pipe 330 changed from closed to open
     4:16:05: Pump 335 changed from open to closed
   
     4:30:00: Balanced after 2 trials
   
     4:45:00: Balanced after 2 trials
   
     5:00:00: Balanced after 3 trials
     5:00:00: Tank 3 is emptying at 34.34 ft
   
     5:15:00: Balanced after 2 trials
   
     5:30:00: Balanced after 2 trials
   
     5:45:00: Balanced after 2 trials
   
     6:00:00: Balanced after 3 trials
     6:00:00: Tank 3 is filling at 34.18 ft
   
     6:15:00: Balanced after 2 trials
   
     6:30:00: Balanced after 2 trials
   
     6:45:00: Balanced after 2 trials
   
     7:00:00: Balanced after 3 trials
   
     7:15:00: Balanced after 1 trials
   
     7:30:00: Balanced after 1 trials
   
     7:45:00: Balanced after 1 trials
   
     8:00:00: Balanced after 2 trials
   
     8:15:00: Balanced after 2 trials
   
     8:30:00: Balanced after 2 trials
   
     8:45:00: Balanced after 2 trials
   
     9:00:00: Balanced after 3 trials
     9:00:00: Tank 3 is emptying at 35.19 ft
   
     9:15:00: Balanced after 2 trials
   
     9:30:00: Balanced after 2 trials
   
     9:45:00: Balanced after 2 trials
     9:45:00: Tank 1 is emptying at 22.16 ft
   
    10:00:00: Balanced after 2 trials
    10:00:00: Tank 1 is filling at 22.15 ft
   
    10:15:00: Balanced after 2 trials
   
    10:30:00: Balanced after 2 trials
    10:30:00: Tank 1 is emptying at 22.16 ft
   
    10:45:00: Balanced after 2 trials
   
    11:00:00: Balanced after 3 trials
    11:00:00: Tank 2 is emptying at 27.66 ft
   
    11:15:00: Balanced after 2 trials
   
    11:30:00: Balanced after 2 trials
   
    11:45:00: Balanced after 2 trials
   
    12:00:00: Balanced after 2 trials
    12:00:00: Tank 2 is filling at 27.58 ft
   
  Analysis ended Tue Mar  5 21:33:12 2019
